/*--------------------------------*- C++ -*----------------------------------*\
| =========                 |                                                 |
| \\      /  F ield         | OpenFOAM: The Open Source CFD Toolbox           |
|  \\    /   O peration     | Version:  1.3                                   |
|   \\  /    A nd           | Web:      http://www.openfoam.org               |
|    \\/     M anipulation  |                                                 |
\*---------------------------------------------------------------------------*/
FoamFile
{
    version     2.0;
    format      ascii;
    class       dictionary;
    location    "constant";
    object      waveDict;
}
// * * * * * * * * * * * * * * * * * * * * * * * * * * * * * * * * * * * * * //

waveType        irregular;

genAbs          1;

absDir          0.0;

nPaddles        25;

tSmooth         3;

wavePeriods
500
(
5.000000
4.863548
4.734345
4.611830
4.495495
4.384886
4.279588
4.179229
4.083470
3.992000
3.904538
3.820827
3.740630
3.663730
3.589928
3.519041
3.450899
3.385346
3.322237
3.261438
3.202824
3.146280
3.091698
3.038977
2.988024
2.938751
2.891078
2.844926
2.800224
2.756906
2.714908
2.674169
2.634636
2.596254
2.558974
2.522750
2.487537
2.453294
2.419981
2.387560
2.355996
2.325256
2.295308
2.266122
2.237668
2.209920
2.182852
2.156439
2.130658
2.105485
2.080901
2.056884
2.033415
2.010475
1.988048
1.966115
1.944661
1.923670
1.903127
1.883019
1.863331
1.844050
1.825165
1.806662
1.788530
1.770759
1.753338
1.736256
1.719504
1.703072
1.686951
1.671132
1.655607
1.640368
1.625407
1.610717
1.596289
1.582118
1.568196
1.554517
1.541075
1.527863
1.514876
1.502107
1.489552
1.477205
1.465062
1.453116
1.441363
1.429799
1.418420
1.407219
1.396195
1.385341
1.374656
1.364133
1.353771
1.343565
1.333511
1.323607
1.313849
1.304234
1.294759
1.285420
1.276215
1.267141
1.258195
1.249374
1.240676
1.232099
1.223639
1.215295
1.207063
1.198943
1.190931
1.183025
1.175224
1.167525
1.159926
1.152425
1.145021
1.137711
1.130494
1.123368
1.116331
1.109382
1.102519
1.095740
1.089044
1.082430
1.075895
1.069438
1.063059
1.056756
1.050526
1.044370
1.038285
1.032271
1.026327
1.020450
1.014640
1.008896
1.003217
0.997601
0.992048
0.986556
0.981125
0.975753
0.970440
0.965184
0.959985
0.954841
0.949753
0.944718
0.939736
0.934807
0.929929
0.925102
0.920325
0.915596
0.910916
0.906284
0.901699
0.897159
0.892665
0.888216
0.883812
0.879450
0.875132
0.870855
0.866620
0.862427
0.858273
0.854160
0.850085
0.846050
0.842052
0.838092
0.834169
0.830283
0.826433
0.822618
0.818838
0.815093
0.811382
0.807705
0.804061
0.800449
0.796870
0.793323
0.789807
0.786322
0.782868
0.779444
0.776050
0.772685
0.769349
0.766042
0.762764
0.759513
0.756290
0.753094
0.749925
0.746782
0.743666
0.740576
0.737511
0.734472
0.731457
0.728467
0.725502
0.722560
0.719642
0.716748
0.713877
0.711029
0.708203
0.705400
0.702619
0.699860
0.697122
0.694406
0.691711
0.689036
0.686382
0.683749
0.681136
0.678542
0.675969
0.673414
0.670879
0.668363
0.665866
0.663387
0.660927
0.658485
0.656061
0.653655
0.651266
0.648895
0.646541
0.644203
0.641883
0.639580
0.637292
0.635022
0.632767
0.630528
0.628305
0.626098
0.623906
0.621729
0.619568
0.617421
0.615290
0.613173
0.611070
0.608982
0.606908
0.604848
0.602803
0.600771
0.598752
0.596747
0.594756
0.592777
0.590812
0.588860
0.586921
0.584994
0.583080
0.581179
0.579290
0.577413
0.575548
0.573695
0.571854
0.570025
0.568208
0.566402
0.564607
0.562824
0.561052
0.559292
0.557542
0.555803
0.554075
0.552358
0.550651
0.548955
0.547269
0.545594
0.543928
0.542273
0.540628
0.538993
0.537368
0.535753
0.534147
0.532551
0.530964
0.529387
0.527819
0.526260
0.524711
0.523170
0.521639
0.520117
0.518603
0.517098
0.515602
0.514115
0.512636
0.511166
0.509704
0.508250
0.506805
0.505368
0.503939
0.502518
0.501105
0.499700
0.498302
0.496913
0.495531
0.494157
0.492791
0.491432
0.490081
0.488737
0.487400
0.486071
0.484748
0.483433
0.482126
0.480825
0.479531
0.478244
0.476964
0.475691
0.474425
0.473165
0.471912
0.470666
0.469426
0.468193
0.466966
0.465746
0.464532
0.463324
0.462123
0.460927
0.459738
0.458555
0.457379
0.456208
0.455043
0.453884
0.452731
0.451584
0.450442
0.449307
0.448177
0.447052
0.445934
0.444821
0.443713
0.442611
0.441515
0.440424
0.439338
0.438258
0.437182
0.436113
0.435048
0.433989
0.432934
0.431885
0.430841
0.429802
0.428768
0.427739
0.426715
0.425695
0.424681
0.423671
0.422666
0.421666
0.420671
0.419680
0.418694
0.417713
0.416736
0.415764
0.414796
0.413833
0.412874
0.411920
0.410970
0.410025
0.409083
0.408147
0.407214
0.406286
0.405361
0.404442
0.403526
0.402614
0.401707
0.400803
0.399904
0.399008
0.398117
0.397230
0.396346
0.395467
0.394591
0.393719
0.392852
0.391987
0.391127
0.390271
0.389418
0.388569
0.387723
0.386882
0.386044
0.385209
0.384378
0.383551
0.382727
0.381907
0.381091
0.380277
0.379468
0.378661
0.377859
0.377059
0.376263
0.375470
0.374681
0.373895
0.373112
0.372332
0.371556
0.370783
0.370013
0.369247
0.368483
0.367723
0.366966
0.366212
0.365461
0.364713
0.363968
0.363226
0.362487
0.361751
0.361019
0.360289
0.359562
0.358838
0.358117
0.357399
0.356683
0.355971
0.355261
0.354554
0.353851
0.353149
0.352451
0.351755
0.351062
0.350372
0.349685
0.349000
0.348318
0.347638
0.346961
0.346287
0.345616
0.344947
0.344280
0.343617
0.342955
0.342297
0.341640
0.340987
0.340336
0.339687
0.339041
0.338397
0.337756
0.337117
0.336480
0.335846
0.335214
0.334585
0.333958
0.333333
);

waveHeights
500
(
0.000000
0.000000
0.000000
0.000000
0.000000
0.000000
0.000000
0.000000
0.000000
0.000000
0.000000
0.000000
0.000000
0.000000
0.000000
0.000000
0.000000
0.000000
0.000000
0.000000
0.000000
0.000000
0.000000
0.000000
0.000000
0.000000
0.000000
0.000000
0.000000
0.000000
0.000000
0.000000
0.000000
0.000000
0.000000
0.000000
0.000001
0.000001
0.000002
0.000004
0.000006
0.000010
0.000015
0.000022
0.000031
0.000044
0.000060
0.000081
0.000106
0.000138
0.000176
0.000221
0.000273
0.000334
0.000403
0.000481
0.000567
0.000663
0.000768
0.000881
0.001003
0.001134
0.001272
0.001417
0.001569
0.001726
0.001889
0.002057
0.002228
0.002402
0.002579
0.002757
0.002936
0.003115
0.003294
0.003472
0.003648
0.003823
0.003995
0.004165
0.004333
0.004498
0.004661
0.004822
0.004983
0.005142
0.005303
0.005465
0.005630
0.005800
0.005977
0.006162
0.006357
0.006565
0.006788
0.007027
0.007285
0.007563
0.007862
0.008182
0.008522
0.008882
0.009256
0.009643
0.010034
0.010424
0.010802
0.011158
0.011483
0.011765
0.011995
0.012162
0.012262
0.012289
0.012260
0.012185
0.012067
0.011909
0.011714
0.011489
0.011237
0.010964
0.010676
0.010378
0.010075
0.009770
0.009469
0.009174
0.008889
0.008614
0.008352
0.008105
0.007871
0.007653
0.007450
0.007261
0.007086
0.006925
0.006776
0.006640
0.006514
0.006398
0.006292
0.006193
0.006102
0.006018
0.005940
0.005867
0.005798
0.005733
0.005672
0.005613
0.005557
0.005503
0.005451
0.005400
0.005351
0.005302
0.005255
0.005208
0.005162
0.005117
0.005072
0.005027
0.004983
0.004940
0.004896
0.004853
0.004811
0.004768
0.004726
0.004684
0.004643
0.004602
0.004561
0.004520
0.004480
0.004440
0.004401
0.004361
0.004322
0.004284
0.004245
0.004207
0.004169
0.004132
0.004095
0.004058
0.004022
0.003986
0.003950
0.003915
0.003880
0.003845
0.003811
0.003777
0.003743
0.003709
0.003676
0.003644
0.003611
0.003579
0.003547
0.003516
0.003485
0.003454
0.003423
0.003393
0.003363
0.003334
0.003304
0.003275
0.003247
0.003218
0.003190
0.003162
0.003135
0.003108
0.003081
0.003054
0.003028
0.003002
0.002976
0.002950
0.002925
0.002900
0.002875
0.002851
0.002826
0.002802
0.002779
0.002755
0.002732
0.002709
0.002686
0.002664
0.002642
0.002620
0.002598
0.002576
0.002555
0.002534
0.002513
0.002492
0.002472
0.002452
0.002431
0.002412
0.002392
0.002373
0.002353
0.002334
0.002316
0.002297
0.002279
0.002260
0.002242
0.002225
0.002207
0.002190
0.002172
0.002155
0.002138
0.002121
0.002105
0.002088
0.002072
0.002056
0.002040
0.002024
0.002009
0.001993
0.001978
0.001963
0.001948
0.001933
0.001919
0.001904
0.001890
0.001875
0.001861
0.001847
0.001834
0.001820
0.001806
0.001793
0.001780
0.001767
0.001753
0.001741
0.001728
0.001715
0.001703
0.001690
0.001678
0.001666
0.001654
0.001642
0.001630
0.001619
0.001607
0.001596
0.001584
0.001573
0.001562
0.001551
0.001540
0.001529
0.001518
0.001508
0.001497
0.001487
0.001476
0.001466
0.001456
0.001446
0.001436
0.001426
0.001417
0.001407
0.001397
0.001388
0.001379
0.001369
0.001360
0.001351
0.001342
0.001333
0.001324
0.001315
0.001306
0.001298
0.001289
0.001281
0.001272
0.001264
0.001256
0.001247
0.001239
0.001231
0.001223
0.001215
0.001208
0.001200
0.001192
0.001184
0.001177
0.001169
0.001162
0.001155
0.001147
0.001140
0.001133
0.001126
0.001119
0.001112
0.001105
0.001098
0.001091
0.001084
0.001078
0.001071
0.001064
0.001058
0.001051
0.001045
0.001039
0.001032
0.001026
0.001020
0.001014
0.001007
0.001001
0.000995
0.000989
0.000984
0.000978
0.000972
0.000966
0.000960
0.000955
0.000949
0.000944
0.000938
0.000932
0.000927
0.000922
0.000916
0.000911
0.000906
0.000900
0.000895
0.000890
0.000885
0.000880
0.000875
0.000870
0.000865
0.000860
0.000855
0.000850
0.000846
0.000841
0.000836
0.000831
0.000827
0.000822
0.000818
0.000813
0.000809
0.000804
0.000800
0.000795
0.000791
0.000787
0.000782
0.000778
0.000774
0.000769
0.000765
0.000761
0.000757
0.000753
0.000749
0.000745
0.000741
0.000737
0.000733
0.000729
0.000725
0.000721
0.000718
0.000714
0.000710
0.000706
0.000703
0.000699
0.000695
0.000692
0.000688
0.000684
0.000681
0.000677
0.000674
0.000670
0.000667
0.000663
0.000660
0.000657
0.000653
0.000650
0.000647
0.000643
0.000640
0.000637
0.000634
0.000631
0.000627
0.000624
0.000621
0.000618
0.000615
0.000612
0.000609
0.000606
0.000603
0.000600
0.000597
0.000594
0.000591
0.000588
0.000585
0.000582
0.000580
0.000577
0.000574
0.000571
0.000568
0.000566
0.000563
0.000560
0.000558
0.000555
0.000552
0.000550
0.000547
0.000544
0.000542
0.000539
0.000537
0.000534
0.000532
0.000529
0.000527
0.000524
0.000522
0.000519
0.000517
0.000514
0.000512
);

wavePhases
500
(
3.448544
2.029404
3.993033
4.357752
2.456347
0.558457
1.582660
2.137282
2.230570
1.416375
3.332079
1.179928
0.467982
5.133077
3.955648
4.007488
2.344789
4.192094
3.990072
2.710505
1.989361
1.619363
3.059000
4.232901
5.789270
4.706512
3.162857
0.482217
4.969762
5.839761
2.077809
3.862611
3.811124
3.299666
3.853245
0.789210
4.774480
0.451764
3.743367
4.624227
4.764522
5.773049
6.113815
0.771061
0.939417
4.968421
0.048604
6.039490
0.127556
1.549373
2.273467
4.814362
4.768888
0.575003
0.346318
2.635094
3.152983
3.372517
5.671407
5.719589
0.326819
0.292979
5.895976
3.083183
3.356437
1.420060
1.963123
4.556121
2.608768
1.473776
3.627799
1.852214
4.396530
3.696240
4.961489
3.581966
5.883615
5.766394
3.545447
4.335686
3.357458
2.389277
5.759079
4.465104
0.707639
5.340153
4.702360
2.460798
6.211234
3.685495
1.192003
1.004293
1.812565
2.030021
1.386918
2.713881
6.241386
3.416974
2.331685
2.226897
4.076261
4.232842
3.963824
1.205074
5.685022
3.275562
2.832024
4.841805
4.042556
2.160832
2.290283
2.825968
5.449731
4.397182
2.584726
0.119759
3.462935
0.743933
3.709512
3.534497
3.194836
0.017259
0.055106
2.302327
2.646853
4.570628
1.071005
3.916491
4.749316
1.624978
1.507635
6.129174
0.045217
1.919974
5.152474
0.019866
2.983831
4.805511
0.757318
1.200472
4.432523
6.072001
3.789142
0.804723
0.555363
6.149590
6.018148
1.570162
0.026494
3.230534
4.810729
3.871522
3.400206
5.349539
4.441730
0.943780
1.050066
3.418075
3.806140
1.178683
0.460696
5.840528
6.262800
2.286174
5.115923
3.568293
3.842219
0.115997
5.041842
0.614543
4.045103
1.618650
3.735493
5.949800
4.335585
0.280565
5.226278
4.538365
3.396969
1.384383
2.318405
4.873895
2.700108
0.652321
2.019564
4.371716
1.129977
0.148065
5.879121
0.251360
6.112466
5.634743
3.254547
5.911255
5.664952
5.014005
3.952234
2.950225
3.169916
3.140354
4.111440
3.466967
1.194742
2.064785
0.361380
2.785288
5.190395
5.413237
5.197279
1.930455
2.773993
4.249253
1.508678
6.043992
0.359131
4.794123
3.476983
2.847208
6.202078
0.855208
6.237246
0.387151
2.365577
1.286879
4.262387
5.596728
2.307557
1.767115
3.713910
2.713675
1.335152
0.139254
5.920762
0.928660
5.544647
6.272041
4.408540
0.115576
3.750680
3.049164
3.732937
0.417719
2.629859
5.177215
2.562331
1.673971
0.656906
3.399719
1.003400
5.903657
1.924218
3.758682
3.993409
3.436135
3.035622
4.048624
1.074180
5.371282
3.147424
5.626639
5.250412
4.547149
3.611645
2.626970
0.336514
1.331631
3.421689
1.007429
4.211893
4.559071
3.672484
1.204906
5.319756
1.120720
0.099965
3.097430
2.392835
2.598962
1.617599
1.563348
0.840466
6.188317
4.996720
5.116314
4.682647
6.169363
3.085351
3.183414
2.339085
0.123049
2.713213
3.887703
3.398246
5.865758
3.985353
3.280692
5.557319
0.916807
5.969662
0.096114
3.382530
3.352942
0.653856
1.608333
1.314228
1.147961
4.072793
1.716332
0.880695
0.848869
1.272309
4.383667
0.263606
3.955264
2.238563
5.964116
3.211662
4.560461
2.193962
1.793879
1.914604
3.143824
2.646137
3.158624
0.330666
4.551595
6.258933
5.652023
2.153682
2.968665
1.549875
4.627931
5.369995
3.771966
0.579002
4.729297
1.345381
1.612152
2.517403
4.938266
0.332711
2.895913
0.767255
2.351401
3.892074
6.019037
3.998411
5.190156
6.121520
4.828299
4.682187
3.816530
1.044522
4.934658
0.736732
2.880630
3.889118
5.144422
3.591993
0.824453
1.451438
0.247267
1.030514
0.622942
3.900325
5.991112
3.727480
0.257085
3.305167
2.495664
3.858180
0.860955
3.500651
6.211925
4.292467
1.645252
5.064994
4.646547
3.277304
2.183252
0.520101
2.497514
0.423595
3.600277
0.676603
5.867768
2.966165
5.807961
1.991108
4.910185
1.309869
2.108091
3.824592
2.732943
6.041978
5.644061
4.257965
1.487172
1.781655
0.250475
1.539111
5.086338
1.868010
0.602065
3.716833
6.176952
4.040261
5.360557
5.302054
1.422284
4.782073
3.030348
2.626610
1.483491
2.539588
4.847051
0.979754
2.282743
0.266484
2.753128
2.720708
3.221969
2.935465
4.922187
3.369268
5.804457
5.121459
5.635677
0.319911
5.081783
3.785501
3.487186
0.359452
3.511867
1.255664
5.137258
0.541375
6.027831
2.821340
5.053861
3.556234
4.549361
0.941580
3.172509
4.504472
5.173055
5.496504
0.048073
5.744699
3.623906
5.543592
0.992729
4.087968
5.661492
0.667436
3.353026
1.567756
3.753137
2.069240
3.052334
3.062591
4.588890
6.051168
1.791327
2.962143
2.047384
1.235601
4.668533
6.269188
4.550968
4.913516
3.033888
6.204736
2.297987
3.380848
4.887745
0.299710
3.212228
5.544938
2.685024
5.743393
1.525337
1.792909
1.993562
5.441953
2.023592
4.556491
0.739188
0.344600
4.108833
4.159880
3.084358
0.946013
1.500190
4.947607
2.284606
4.427865
5.089191
1.280464
2.897481
);

waveDirs
500
(
0.000000
0.000000
0.000000
0.000000
0.000000
0.000000
0.000000
0.000000
0.000000
0.000000
0.000000
0.000000
0.000000
0.000000
0.000000
0.000000
0.000000
0.000000
0.000000
0.000000
0.000000
0.000000
0.000000
0.000000
0.000000
0.000000
0.000000
0.000000
0.000000
0.000000
0.000000
0.000000
0.000000
0.000000
0.000000
0.000000
0.000000
0.000000
0.000000
0.000000
0.000000
0.000000
0.000000
0.000000
0.000000
0.000000
0.000000
0.000000
0.000000
0.000000
0.000000
0.000000
0.000000
0.000000
0.000000
0.000000
0.000000
0.000000
0.000000
0.000000
0.000000
0.000000
0.000000
0.000000
0.000000
0.000000
0.000000
0.000000
0.000000
0.000000
0.000000
0.000000
0.000000
0.000000
0.000000
0.000000
0.000000
0.000000
0.000000
0.000000
0.000000
0.000000
0.000000
0.000000
0.000000
0.000000
0.000000
0.000000
0.000000
0.000000
0.000000
0.000000
0.000000
0.000000
0.000000
0.000000
0.000000
0.000000
0.000000
0.000000
0.000000
0.000000
0.000000
0.000000
0.000000
0.000000
0.000000
0.000000
0.000000
0.000000
0.000000
0.000000
0.000000
0.000000
0.000000
0.000000
0.000000
0.000000
0.000000
0.000000
0.000000
0.000000
0.000000
0.000000
0.000000
0.000000
0.000000
0.000000
0.000000
0.000000
0.000000
0.000000
0.000000
0.000000
0.000000
0.000000
0.000000
0.000000
0.000000
0.000000
0.000000
0.000000
0.000000
0.000000
0.000000
0.000000
0.000000
0.000000
0.000000
0.000000
0.000000
0.000000
0.000000
0.000000
0.000000
0.000000
0.000000
0.000000
0.000000
0.000000
0.000000
0.000000
0.000000
0.000000
0.000000
0.000000
0.000000
0.000000
0.000000
0.000000
0.000000
0.000000
0.000000
0.000000
0.000000
0.000000
0.000000
0.000000
0.000000
0.000000
0.000000
0.000000
0.000000
0.000000
0.000000
0.000000
0.000000
0.000000
0.000000
0.000000
0.000000
0.000000
0.000000
0.000000
0.000000
0.000000
0.000000
0.000000
0.000000
0.000000
0.000000
0.000000
0.000000
0.000000
0.000000
0.000000
0.000000
0.000000
0.000000
0.000000
0.000000
0.000000
0.000000
0.000000
0.000000
0.000000
0.000000
0.000000
0.000000
0.000000
0.000000
0.000000
0.000000
0.000000
0.000000
0.000000
0.000000
0.000000
0.000000
0.000000
0.000000
0.000000
0.000000
0.000000
0.000000
0.000000
0.000000
0.000000
0.000000
0.000000
0.000000
0.000000
0.000000
0.000000
0.000000
0.000000
0.000000
0.000000
0.000000
0.000000
0.000000
0.000000
0.000000
0.000000
0.000000
0.000000
0.000000
0.000000
0.000000
0.000000
0.000000
0.000000
0.000000
0.000000
0.000000
0.000000
0.000000
0.000000
0.000000
0.000000
0.000000
0.000000
0.000000
0.000000
0.000000
0.000000
0.000000
0.000000
0.000000
0.000000
0.000000
0.000000
0.000000
0.000000
0.000000
0.000000
0.000000
0.000000
0.000000
0.000000
0.000000
0.000000
0.000000
0.000000
0.000000
0.000000
0.000000
0.000000
0.000000
0.000000
0.000000
0.000000
0.000000
0.000000
0.000000
0.000000
0.000000
0.000000
0.000000
0.000000
0.000000
0.000000
0.000000
0.000000
0.000000
0.000000
0.000000
0.000000
0.000000
0.000000
0.000000
0.000000
0.000000
0.000000
0.000000
0.000000
0.000000
0.000000
0.000000
0.000000
0.000000
0.000000
0.000000
0.000000
0.000000
0.000000
0.000000
0.000000
0.000000
0.000000
0.000000
0.000000
0.000000
0.000000
0.000000
0.000000
0.000000
0.000000
0.000000
0.000000
0.000000
0.000000
0.000000
0.000000
0.000000
0.000000
0.000000
0.000000
0.000000
0.000000
0.000000
0.000000
0.000000
0.000000
0.000000
0.000000
0.000000
0.000000
0.000000
0.000000
0.000000
0.000000
0.000000
0.000000
0.000000
0.000000
0.000000
0.000000
0.000000
0.000000
0.000000
0.000000
0.000000
0.000000
0.000000
0.000000
0.000000
0.000000
0.000000
0.000000
0.000000
0.000000
0.000000
0.000000
0.000000
0.000000
0.000000
0.000000
0.000000
0.000000
0.000000
0.000000
0.000000
0.000000
0.000000
0.000000
0.000000
0.000000
0.000000
0.000000
0.000000
0.000000
0.000000
0.000000
0.000000
0.000000
0.000000
0.000000
0.000000
0.000000
0.000000
0.000000
0.000000
0.000000
0.000000
0.000000
0.000000
0.000000
0.000000
0.000000
0.000000
0.000000
0.000000
0.000000
0.000000
0.000000
0.000000
0.000000
0.000000
0.000000
0.000000
0.000000
0.000000
0.000000
0.000000
0.000000
0.000000
0.000000
0.000000
0.000000
0.000000
0.000000
0.000000
0.000000
0.000000
0.000000
0.000000
0.000000
0.000000
0.000000
0.000000
0.000000
0.000000
0.000000
0.000000
0.000000
0.000000
0.000000
0.000000
0.000000
0.000000
0.000000
0.000000
0.000000
0.000000
0.000000
0.000000
0.000000
0.000000
0.000000
0.000000
0.000000
0.000000
0.000000
0.000000
0.000000
0.000000
0.000000
0.000000
0.000000
0.000000
0.000000
0.000000
0.000000
0.000000
0.000000
0.000000
0.000000
0.000000
0.000000
);

// ************************************************************************* //
