/*--------------------------------*- C++ -*----------------------------------*\
| =========                 |                                                 |
| \      /  F ield         | OpenFOAM: The Open Source CFD Toolbox           |
|  \    /   O peration     | Version:  1.3                                   |
|   \  /    A nd           | Web:      http://www.openfoam.org               |
|    \/     M anipulation  |                                                 |
\*---------------------------------------------------------------------------*/
FoamFile
{
    version     2.0;
    format      ascii;
    class       dictionary;
    location    "constant";
    object      waveDict;
}
// * * * * * * * * * * * * * * * * * * * * * * * * * * * * * * * * * * * * * //

waveType        irregular;

genAbs          1;

absDir          0.0;

nPaddles        25;

tSmooth         3;

wavePeriods
500
(
5.000000
4.863548
4.734345
4.611830
4.495495
4.384886
4.279588
4.179229
4.083470
3.992000
3.904538
3.820827
3.740630
3.663730
3.589928
3.519041
3.450899
3.385346
3.322237
3.261438
3.202824
3.146280
3.091698
3.038977
2.988024
2.938751
2.891078
2.844926
2.800224
2.756906
2.714908
2.674169
2.634636
2.596254
2.558974
2.522750
2.487537
2.453294
2.419981
2.387560
2.355996
2.325256
2.295308
2.266122
2.237668
2.209920
2.182852
2.156439
2.130658
2.105485
2.080901
2.056884
2.033415
2.010475
1.988048
1.966115
1.944661
1.923670
1.903127
1.883019
1.863331
1.844050
1.825165
1.806662
1.788530
1.770759
1.753338
1.736256
1.719504
1.703072
1.686951
1.671132
1.655607
1.640368
1.625407
1.610717
1.596289
1.582118
1.568196
1.554517
1.541075
1.527863
1.514876
1.502107
1.489552
1.477205
1.465062
1.453116
1.441363
1.429799
1.418420
1.407219
1.396195
1.385341
1.374656
1.364133
1.353771
1.343565
1.333511
1.323607
1.313849
1.304234
1.294759
1.285420
1.276215
1.267141
1.258195
1.249374
1.240676
1.232099
1.223639
1.215295
1.207063
1.198943
1.190931
1.183025
1.175224
1.167525
1.159926
1.152425
1.145021
1.137711
1.130494
1.123368
1.116331
1.109382
1.102519
1.095740
1.089044
1.082430
1.075895
1.069438
1.063059
1.056756
1.050526
1.044370
1.038285
1.032271
1.026327
1.020450
1.014640
1.008896
1.003217
0.997601
0.992048
0.986556
0.981125
0.975753
0.970440
0.965184
0.959985
0.954841
0.949753
0.944718
0.939736
0.934807
0.929929
0.925102
0.920325
0.915596
0.910916
0.906284
0.901699
0.897159
0.892665
0.888216
0.883812
0.879450
0.875132
0.870855
0.866620
0.862427
0.858273
0.854160
0.850085
0.846050
0.842052
0.838092
0.834169
0.830283
0.826433
0.822618
0.818838
0.815093
0.811382
0.807705
0.804061
0.800449
0.796870
0.793323
0.789807
0.786322
0.782868
0.779444
0.776050
0.772685
0.769349
0.766042
0.762764
0.759513
0.756290
0.753094
0.749925
0.746782
0.743666
0.740576
0.737511
0.734472
0.731457
0.728467
0.725502
0.722560
0.719642
0.716748
0.713877
0.711029
0.708203
0.705400
0.702619
0.699860
0.697122
0.694406
0.691711
0.689036
0.686382
0.683749
0.681136
0.678542
0.675969
0.673414
0.670879
0.668363
0.665866
0.663387
0.660927
0.658485
0.656061
0.653655
0.651266
0.648895
0.646541
0.644203
0.641883
0.639580
0.637292
0.635022
0.632767
0.630528
0.628305
0.626098
0.623906
0.621729
0.619568
0.617421
0.615290
0.613173
0.611070
0.608982
0.606908
0.604848
0.602803
0.600771
0.598752
0.596747
0.594756
0.592777
0.590812
0.588860
0.586921
0.584994
0.583080
0.581179
0.579290
0.577413
0.575548
0.573695
0.571854
0.570025
0.568208
0.566402
0.564607
0.562824
0.561052
0.559292
0.557542
0.555803
0.554075
0.552358
0.550651
0.548955
0.547269
0.545594
0.543928
0.542273
0.540628
0.538993
0.537368
0.535753
0.534147
0.532551
0.530964
0.529387
0.527819
0.526260
0.524711
0.523170
0.521639
0.520117
0.518603
0.517098
0.515602
0.514115
0.512636
0.511166
0.509704
0.508250
0.506805
0.505368
0.503939
0.502518
0.501105
0.499700
0.498302
0.496913
0.495531
0.494157
0.492791
0.491432
0.490081
0.488737
0.487400
0.486071
0.484748
0.483433
0.482126
0.480825
0.479531
0.478244
0.476964
0.475691
0.474425
0.473165
0.471912
0.470666
0.469426
0.468193
0.466966
0.465746
0.464532
0.463324
0.462123
0.460927
0.459738
0.458555
0.457379
0.456208
0.455043
0.453884
0.452731
0.451584
0.450442
0.449307
0.448177
0.447052
0.445934
0.444821
0.443713
0.442611
0.441515
0.440424
0.439338
0.438258
0.437182
0.436113
0.435048
0.433989
0.432934
0.431885
0.430841
0.429802
0.428768
0.427739
0.426715
0.425695
0.424681
0.423671
0.422666
0.421666
0.420671
0.419680
0.418694
0.417713
0.416736
0.415764
0.414796
0.413833
0.412874
0.411920
0.410970
0.410025
0.409083
0.408147
0.407214
0.406286
0.405361
0.404442
0.403526
0.402614
0.401707
0.400803
0.399904
0.399008
0.398117
0.397230
0.396346
0.395467
0.394591
0.393719
0.392852
0.391987
0.391127
0.390271
0.389418
0.388569
0.387723
0.386882
0.386044
0.385209
0.384378
0.383551
0.382727
0.381907
0.381091
0.380277
0.379468
0.378661
0.377859
0.377059
0.376263
0.375470
0.374681
0.373895
0.373112
0.372332
0.371556
0.370783
0.370013
0.369247
0.368483
0.367723
0.366966
0.366212
0.365461
0.364713
0.363968
0.363226
0.362487
0.361751
0.361019
0.360289
0.359562
0.358838
0.358117
0.357399
0.356683
0.355971
0.355261
0.354554
0.353851
0.353149
0.352451
0.351755
0.351062
0.350372
0.349685
0.349000
0.348318
0.347638
0.346961
0.346287
0.345616
0.344947
0.344280
0.343617
0.342955
0.342297
0.341640
0.340987
0.340336
0.339687
0.339041
0.338397
0.337756
0.337117
0.336480
0.335846
0.335214
0.334585
0.333958
0.333333
);

waveHeights
500
(
0.000000
0.000000
0.000000
0.000000
0.000000
0.000000
0.000000
0.000000
0.000000
0.000000
0.000000
0.000000
0.000000
0.000000
0.000000
0.000000
0.000000
0.000000
0.000000
0.000000
0.000000
0.000000
0.000000
0.000000
0.000000
0.000000
0.000000
0.000000
0.000000
0.000000
0.000000
0.000000
0.000000
0.000000
0.000000
0.000001
0.000001
0.000002
0.000003
0.000005
0.000008
0.000012
0.000019
0.000027
0.000039
0.000055
0.000075
0.000101
0.000133
0.000172
0.000220
0.000276
0.000341
0.000417
0.000503
0.000601
0.000709
0.000829
0.000960
0.001102
0.001254
0.001417
0.001590
0.001771
0.001961
0.002158
0.002362
0.002571
0.002785
0.003003
0.003224
0.003446
0.003670
0.003894
0.004118
0.004340
0.004560
0.004778
0.004994
0.005206
0.005416
0.005622
0.005826
0.006028
0.006228
0.006428
0.006629
0.006831
0.007038
0.007250
0.007471
0.007702
0.007946
0.008206
0.008485
0.008784
0.009107
0.009454
0.009827
0.010227
0.010653
0.011102
0.011571
0.012053
0.012543
0.013029
0.013502
0.013948
0.014354
0.014707
0.014993
0.015203
0.015327
0.015361
0.015324
0.015231
0.015083
0.014886
0.014643
0.014361
0.014046
0.013705
0.013345
0.012973
0.012593
0.012213
0.011837
0.011468
0.011111
0.010768
0.010440
0.010131
0.009839
0.009566
0.009312
0.009076
0.008858
0.008656
0.008470
0.008299
0.008142
0.007998
0.007864
0.007742
0.007628
0.007523
0.007425
0.007333
0.007247
0.007166
0.007090
0.007016
0.006946
0.006879
0.006813
0.006750
0.006688
0.006628
0.006569
0.006510
0.006453
0.006396
0.006340
0.006284
0.006229
0.006175
0.006120
0.006067
0.006013
0.005960
0.005908
0.005856
0.005804
0.005752
0.005701
0.005650
0.005600
0.005550
0.005501
0.005452
0.005403
0.005354
0.005306
0.005259
0.005212
0.005165
0.005119
0.005073
0.005027
0.004982
0.004938
0.004893
0.004850
0.004806
0.004763
0.004721
0.004679
0.004637
0.004595
0.004554
0.004514
0.004474
0.004434
0.004395
0.004356
0.004317
0.004279
0.004241
0.004204
0.004167
0.004130
0.004094
0.004058
0.004023
0.003988
0.003953
0.003919
0.003885
0.003851
0.003818
0.003785
0.003752
0.003720
0.003688
0.003656
0.003625
0.003594
0.003563
0.003533
0.003503
0.003473
0.003444
0.003415
0.003386
0.003358
0.003330
0.003302
0.003274
0.003247
0.003220
0.003194
0.003167
0.003141
0.003115
0.003090
0.003064
0.003039
0.003015
0.002990
0.002966
0.002942
0.002918
0.002895
0.002871
0.002848
0.002826
0.002803
0.002781
0.002759
0.002737
0.002715
0.002694
0.002673
0.002652
0.002631
0.002611
0.002590
0.002570
0.002550
0.002531
0.002511
0.002492
0.002473
0.002454
0.002435
0.002416
0.002398
0.002380
0.002362
0.002344
0.002327
0.002309
0.002292
0.002275
0.002258
0.002241
0.002225
0.002208
0.002192
0.002176
0.002160
0.002144
0.002128
0.002113
0.002098
0.002082
0.002067
0.002053
0.002038
0.002023
0.002009
0.001994
0.001980
0.001966
0.001952
0.001938
0.001925
0.001911
0.001898
0.001885
0.001872
0.001859
0.001846
0.001833
0.001820
0.001808
0.001795
0.001783
0.001771
0.001759
0.001747
0.001735
0.001723
0.001712
0.001700
0.001689
0.001677
0.001666
0.001655
0.001644
0.001633
0.001622
0.001611
0.001601
0.001590
0.001580
0.001570
0.001559
0.001549
0.001539
0.001529
0.001519
0.001509
0.001500
0.001490
0.001481
0.001471
0.001462
0.001452
0.001443
0.001434
0.001425
0.001416
0.001407
0.001398
0.001390
0.001381
0.001372
0.001364
0.001355
0.001347
0.001339
0.001330
0.001322
0.001314
0.001306
0.001298
0.001290
0.001282
0.001275
0.001267
0.001259
0.001252
0.001244
0.001237
0.001229
0.001222
0.001215
0.001208
0.001201
0.001193
0.001186
0.001179
0.001172
0.001166
0.001159
0.001152
0.001145
0.001139
0.001132
0.001126
0.001119
0.001113
0.001106
0.001100
0.001094
0.001087
0.001081
0.001075
0.001069
0.001063
0.001057
0.001051
0.001045
0.001039
0.001033
0.001028
0.001022
0.001016
0.001011
0.001005
0.001000
0.000994
0.000989
0.000983
0.000978
0.000972
0.000967
0.000962
0.000957
0.000951
0.000946
0.000941
0.000936
0.000931
0.000926
0.000921
0.000916
0.000911
0.000907
0.000902
0.000897
0.000892
0.000888
0.000883
0.000878
0.000874
0.000869
0.000864
0.000860
0.000856
0.000851
0.000847
0.000842
0.000838
0.000834
0.000829
0.000825
0.000821
0.000817
0.000813
0.000808
0.000804
0.000800
0.000796
0.000792
0.000788
0.000784
0.000780
0.000776
0.000773
0.000769
0.000765
0.000761
0.000757
0.000754
0.000750
0.000746
0.000742
0.000739
0.000735
0.000732
0.000728
0.000724
0.000721
0.000717
0.000714
0.000711
0.000707
0.000704
0.000700
0.000697
0.000694
0.000690
0.000687
0.000684
0.000680
0.000677
0.000674
0.000671
0.000668
0.000665
0.000661
0.000658
0.000655
0.000652
0.000649
0.000646
0.000643
0.000640
);

wavePhases
500
(
4.733446
0.201202
2.473276
1.747189
4.487620
2.410258
5.989336
3.126771
5.520160
2.305144
3.753934
4.461903
3.724676
2.772165
1.313662
0.929314
2.524248
4.609136
3.199705
2.712445
6.236179
4.002700
2.749793
4.975815
0.765469
0.384284
1.612678
2.640386
4.409671
2.801758
4.008332
2.225687
3.455536
3.278468
2.814626
6.217941
1.596777
4.776013
2.407067
5.319588
5.891366
4.768628
3.472778
2.285321
0.506420
0.052694
2.138274
3.565981
4.605688
5.889328
2.963291
0.449033
0.539244
0.002419
3.207919
4.990741
5.882693
5.051166
5.361504
0.866295
3.205955
2.300719
5.985806
0.915825
4.592262
3.911667
0.323919
4.615836
1.715816
2.407975
5.138897
0.986789
2.019461
2.820233
3.432654
3.501239
0.264995
3.516547
0.678763
2.071442
5.644904
0.224938
4.732559
1.771764
2.039080
0.518925
6.014798
2.286947
1.360949
1.590997
0.786622
5.660474
1.479704
5.997562
4.963312
1.093143
6.033381
2.768245
1.444159
1.144473
6.202806
1.735113
4.796048
3.650952
0.258786
2.500259
1.873052
3.131896
0.554348
1.693043
3.644093
2.740917
2.488645
1.554389
0.836323
3.293344
0.790497
0.804280
2.756244
3.895755
0.162831
5.669083
1.648933
2.177251
4.902126
0.690110
3.057812
2.560425
4.377151
5.693298
0.082706
0.119944
5.522298
3.639482
3.486640
4.582244
5.119103
2.213714
5.063297
5.850958
3.895625
2.344411
3.542217
4.517187
5.906262
4.744276
3.122128
5.084477
4.899340
5.869504
3.245933
2.761369
1.019706
4.091039
1.860657
0.384099
3.510559
1.721531
2.114563
6.022520
1.884273
5.429171
0.881093
1.476173
0.627211
5.680151
2.466913
3.645222
5.520917
5.201427
4.548085
4.212086
3.285736
4.220902
2.120565
1.533489
2.835862
2.238668
3.027561
1.729390
3.773228
0.580866
5.128861
4.493827
0.507689
0.906178
0.222262
1.857265
6.038917
5.074802
4.738412
5.959141
4.632972
1.299872
5.989318
4.625450
4.988752
5.530515
2.014074
4.993791
2.569622
6.023389
0.925231
0.017001
0.511064
2.714268
4.619013
5.230517
0.255925
4.261809
3.035719
1.661771
2.501514
2.087570
5.445246
0.041895
1.804937
5.824056
4.303396
1.133158
3.774096
5.579936
5.570666
1.841839
0.951770
2.811508
4.803642
4.598281
5.782786
2.674274
6.012425
5.302944
3.895948
0.023351
2.668914
2.031684
3.304530
1.207891
0.329042
2.395373
0.080489
2.375521
3.141648
3.722563
3.113771
1.108271
2.429100
5.924287
1.576320
1.032510
2.029367
4.720776
3.705541
5.336049
6.094097
4.516241
2.930633
1.134995
3.381011
3.686063
1.152539
3.990024
6.154581
3.539412
1.065633
5.438750
2.315218
1.506683
2.587842
6.116434
2.368397
4.480073
5.133612
2.161031
0.134141
1.575594
0.850376
5.010751
3.943523
4.372114
3.601894
1.996555
1.570004
3.466005
5.713326
3.878211
5.599909
3.883421
3.938708
2.147499
4.190969
5.610051
6.135568
2.085717
4.784791
2.923669
3.813749
0.577938
3.897472
4.410700
1.009309
5.988976
6.204348
4.715108
2.123735
0.958864
2.593009
3.280036
3.880573
0.483512
4.948032
5.847129
3.079857
4.199015
0.351428
3.933429
5.814582
1.136482
1.645611
5.274836
5.267734
1.679455
2.216447
4.649945
2.425905
0.007265
4.808708
4.417482
1.717925
3.782217
1.146210
1.737243
4.070079
0.906007
1.141418
1.149087
1.022842
4.492241
2.860054
4.561754
0.774987
0.680796
4.765726
5.818397
0.711342
0.008576
1.945052
0.809047
0.763300
2.908912
5.701849
4.515186
2.819496
3.709871
3.713415
1.551148
5.246746
4.732468
5.740745
3.553737
4.910119
3.447016
0.284205
1.985784
4.672352
5.447788
0.541507
3.074292
3.718252
1.735315
2.735452
0.169180
0.139738
0.255272
4.143876
2.467699
2.463670
1.404107
4.219472
3.027133
4.604752
4.911232
2.305175
3.752168
4.390861
3.563638
2.264158
5.763187
5.615268
0.173147
5.144170
0.543627
0.098191
4.302681
5.115202
5.008514
2.041462
4.346266
0.419984
4.023117
5.968193
2.035664
0.314890
2.162833
1.624475
5.812916
5.252643
5.695365
4.417446
3.368733
6.020563
5.011306
3.550643
1.075619
4.040360
5.699522
3.782002
5.821983
2.375408
3.871102
4.336497
5.702919
3.653968
2.006088
2.333149
4.252089
1.283820
2.509629
0.092904
3.612213
5.560932
6.113511
0.873665
3.855352
3.893194
2.736933
1.498615
3.409256
0.171763
6.068918
4.115270
3.681787
6.051960
4.968575
0.218122
6.118393
1.074074
1.045745
0.414258
3.815467
4.507263
3.980573
1.167511
2.846461
4.766406
1.226030
0.033333
2.476673
4.455227
0.448883
0.763515
2.900814
6.136911
5.794309
3.721330
1.910022
4.074501
1.439479
1.226973
0.603562
1.249372
1.697845
5.786886
3.901674
3.134794
4.004446
1.734316
1.620176
1.567731
1.231406
3.512913
5.764300
0.371038
5.640916
0.652237
1.434112
5.727567
1.750998
1.251776
1.115961
2.083446
5.155545
4.976525
3.241606
5.647354
1.230347
3.050613
5.779377
5.864903
0.415138
);

waveDirs
500
(
21.767909
-13.698679
-22.071493
28.041536
-0.649515
17.580023
-23.127964
-15.176605
1.774536
13.569279
21.219308
10.812884
16.795257
23.258322
-8.261703
-16.365551
12.144266
29.059060
-28.561647
-28.378129
2.404746
20.791764
18.666245
18.598698
-7.289963
21.415137
19.275379
-15.679055
20.909688
-14.215528
-27.457463
11.876493
-2.057301
-23.331427
-28.520913
-29.992810
9.590106
7.923915
16.708499
27.801613
-28.311088
6.568880
-11.840532
20.124314
-12.905252
23.609846
5.773831
7.339433
19.558397
5.298977
-18.047680
20.218691
21.974048
11.262369
-20.616467
-28.733337
14.056614
-28.574695
-23.409578
27.942279
-28.610668
-25.977234
-22.101128
7.264466
26.682450
-6.216997
19.529438
-0.963216
-27.027017
16.867496
-15.526569
-9.002930
16.341607
-21.937021
7.636782
-16.557692
20.665857
-12.890081
-5.259672
26.265134
-21.050183
-3.893686
5.944225
22.822998
18.711279
24.194144
-24.169168
6.182447
-21.062398
8.186278
4.733492
-10.766075
-9.804276
10.561907
20.572252
-9.735503
22.096654
-9.994193
-6.350369
-6.318697
-8.805040
-9.900330
1.486494
27.450858
23.120104
3.526946
4.785374
-15.206137
20.296117
25.115102
0.038121
-24.774063
10.771887
-2.891967
7.770356
8.280099
19.343903
11.524536
17.180979
3.027081
4.868236
-0.822004
13.126778
7.200595
-0.455297
20.597516
12.728850
6.042872
-19.196969
-4.978695
23.424092
-20.505795
7.798046
26.762192
26.582847
24.698731
-11.493149
26.353781
-22.590433
14.129016
-22.133735
-2.358396
19.030934
11.019842
23.785009
13.004653
-18.564602
26.489465
-27.843503
-16.181148
15.387209
28.097178
-28.334411
-24.820277
5.653109
9.088282
1.988305
-26.990719
-12.876341
-7.418507
14.259101
16.257767
-8.581537
29.223806
-7.187742
-29.574705
14.020134
-18.543166
-2.747273
18.970120
-7.500163
-17.710782
-24.461380
-0.618497
22.260231
18.907567
-9.571000
18.091994
4.456981
23.812871
-21.860635
-5.624111
7.224407
21.914789
26.003367
11.688243
10.296458
2.146659
-12.791052
-29.275287
21.777834
-7.278949
22.521501
21.379566
-22.630250
1.695351
-21.422942
16.958457
-29.465668
26.561708
-3.158422
6.678194
-24.514664
-9.498558
-5.885373
-18.579213
13.039388
-21.895313
29.354669
-24.875664
-21.224014
-9.103497
0.725204
-8.319006
-17.986783
5.695384
23.201911
-26.463113
-5.299197
27.192386
7.344672
18.425963
-29.482353
-20.937986
23.736113
-23.381746
22.497082
-7.063598
21.428976
-25.412987
-14.457515
24.539087
24.341434
27.902419
-22.751850
19.955870
-10.514957
-21.142444
-18.467921
2.197626
-8.710553
-9.232490
28.479159
21.416811
4.270066
22.531465
18.875902
0.818271
16.958910
28.468810
7.901574
3.616417
-26.447811
29.828072
-23.393303
7.726835
-26.916718
-10.780050
-6.394400
28.484591
-20.817324
-9.628348
-11.337048
-18.978969
-25.366793
7.745139
-14.634913
-8.539566
-27.350344
23.483884
15.027247
-3.163706
-20.042689
-25.149613
-0.843967
13.643481
0.276014
29.691192
-9.838661
21.035726
-15.564015
0.610215
-26.777039
-29.139759
-21.456038
-7.757542
2.460452
-24.330975
-21.220174
25.946395
6.373135
-6.343069
8.367599
2.131640
12.132686
-24.642096
18.867571
-10.846169
23.173313
-15.715707
22.912547
28.586495
8.536548
5.697943
2.493489
7.447372
0.247714
14.088588
19.866827
-16.348756
14.732189
26.173541
18.109095
-17.034668
12.338293
-12.801333
27.649485
-9.896231
-12.547954
6.137962
19.589270
6.988689
21.801033
-1.446989
-28.210894
9.880140
-5.193732
-0.749236
26.395496
13.615241
4.443672
21.053339
3.417702
-20.444671
-2.918741
12.365236
25.290718
-6.167503
-18.996070
21.579900
28.837331
4.127694
3.939788
-21.497875
-11.325746
6.903028
23.896372
9.647746
-18.369203
11.507132
-4.090366
-17.185944
15.552791
24.195975
-4.715509
13.175716
-18.113195
-8.150886
-27.971711
26.409594
-29.912889
7.683874
-29.141646
15.681987
-1.799834
19.316388
9.759079
13.048588
28.997528
-6.967903
-24.317474
15.253335
-15.648510
7.497465
-20.935438
-2.517542
15.186241
-13.775497
18.227803
17.594424
19.718047
-29.223800
-19.016520
16.305804
17.201866
7.677179
-3.019786
-29.864158
-7.663221
13.028352
-25.109627
19.965051
28.970041
-19.538918
20.263799
-5.708539
-21.661751
9.834725
7.370156
14.369166
-0.211509
-29.542537
10.057242
-25.628650
-21.356917
-24.284659
-11.742239
-17.893211
-19.013272
-0.932436
-24.222535
-24.194045
-7.035039
6.521018
-0.558036
-22.832920
23.757128
25.987359
3.656074
8.984107
6.288186
-8.451082
-18.711139
5.075240
-8.611658
3.921659
-4.471791
-17.048335
-24.703528
12.792518
-16.450828
29.265109
12.678589
-11.878110
-17.454709
-15.630510
10.650139
-11.559902
-16.527056
9.037732
19.025472
-28.289349
6.042306
19.001442
-19.699429
-24.220665
11.999053
22.305975
-16.034518
-23.806388
-3.669218
-22.370262
-26.636720
-27.730692
26.942459
22.509560
12.305275
-5.570898
-12.677468
9.261449
22.877914
12.483493
1.663851
3.004207
24.326052
7.419196
-1.894804
-23.389307
-17.751409
23.905238
-7.113558
-11.709732
23.195190
1.069807
21.705803
-15.603461
-19.408373
-20.083883
-16.038986
10.525259
12.679367
-28.507350
13.536884
1.541692
16.127122
28.595244
3.432616
-20.662168
26.011938
29.133230
-22.322406
22.683304
6.561068
-22.335975
28.098488
-10.436922
28.036950
2.312698
19.877935
23.634266
);

// ************************************************************************* //
