/*--------------------------------*- C++ -*----------------------------------*\
| =========                 |                                                 |
| \\      /  F ield         | OpenFOAM: The Open Source CFD Toolbox           |
|  \\    /   O peration     | Version:  5                                     |
|   \\  /    A nd           | Web:      www.OpenFOAM.org                      |
|    \\/     M anipulation  |                                                 |
\*---------------------------------------------------------------------------*/
FoamFile
{
    version     2.0;
    format      ascii;
    class       dictionary;
    location    "system";
    object      controlDict;
}
// * * * * * * * * * * * * * * * * * * * * * * * * * * * * * * * * * * * * * //

libs
(
	poroussixDoFMooring
	poroussixDoFRigidBodyMotion
	//"/home/dongyy/OpenFOAM/dongyy-v2206/platforms/linux64GccDPInt32Opt/lib/libporoussixDoFRigidBodyMotion.so"
);

application     porousolaFlow;

startFrom       latestTime;

startTime       0;

stopAt          endTime;

endTime         40;

deltaT          0.01;

writeControl    adjustableRunTime;

writeInterval   0.4;

purgeWrite      0;

writeFormat     ascii;

writePrecision  12;

compression     off;

timeFormat      general;

timePrecision   6;

runTimeModifiable yes;

adjustTimeStep  yes;

maxCo           0.5;
maxAlphaCo      0.5;
maxDeltaT       0.01;

functions
{  
       //#include "forceCoeffs" 
       #includeFunc  sampleDict

}

// ************************************************************************* //
